*NODE,NSET=NALL
1,0.0000000e+00,0.0000000e+00,1.0000000e+01
2,0.0000000e+00,0.0000000e+00,0.0000000e+00
3,0.0000000e+00,1.0000000e+01,1.0000000e+01
4,0.0000000e+00,1.0000000e+01,0.0000000e+00
5,1.0000000e+02,0.0000000e+00,1.0000000e+01
6,1.0000000e+02,0.0000000e+00,0.0000000e+00
7,1.0000000e+02,1.0000000e+01,1.0000000e+01
8,1.0000000e+02,1.0000000e+01,0.0000000e+00
9,0.0000000e+00,0.0000000e+00,2.5000000e+00
10,0.0000000e+00,0.0000000e+00,5.0000000e+00
11,0.0000000e+00,0.0000000e+00,7.5000000e+00
12,0.0000000e+00,0.0000000e+00,1.2500000e+00
13,0.0000000e+00,0.0000000e+00,3.7500000e+00
14,0.0000000e+00,0.0000000e+00,6.2500000e+00
15,0.0000000e+00,0.0000000e+00,8.7500000e+00
16,0.0000000e+00,2.5000000e+00,1.0000000e+01
17,0.0000000e+00,5.0000000e+00,1.0000000e+01
18,0.0000000e+00,7.5000000e+00,1.0000000e+01
19,0.0000000e+00,1.2500000e+00,1.0000000e+01
20,0.0000000e+00,3.7500000e+00,1.0000000e+01
** ... 4385 like lines cut
*ELEMENT,TYPE=GAPUNI,ELSET=EALL
3741,4404,4405
*ELEMENT,TYPE=B32,ELSET=EALL
3742,4404,4405
*ELEMENT,TYPE=C3D10,ELSET=EALL
1401,1555,2465,984,2490,2563,2564,2565,2566,2568,2567
1402,984,2465,1555,2483,2564,2563,2565,2569,2571,2570
1403,583,2469,547,2471,2572,2573,888,2574,2576,2575
1404,1569,1536,2469,2492,1874,2577,2578,2579,2581,2580
1405,1564,2470,2451,2472,2582,2583,2584,2585,2587,2586
1406,578,2451,2470,2491,2588,2583,2589,2590,2592,2591
1407,1507,973,2475,2498,2593,2594,2595,2596,2598,2597
1408,2456,2475,973,2498,2599,2594,2600,2601,2597,2598
1409,1507,2475,2456,2498,2595,2599,2602,2596,2597,2601
1410,541,2451,578,2491,2603,2588,877,2604,2592,2590
1411,1564,2451,1495,2472,2584,2605,1857,2585,2586,2606
1412,991,2493,1483,2504,2607,2608,2609,2610,2612,2611
1413,1483,2493,2453,2504,2608,2613,2614,2611,2612,2615
1414,564,2521,2462,2543,2616,2617,2618,2619,2621,2620
1415,2462,2521,2037,2543,2617,2622,2623,2620,2621,2624
1416,564,498,2521,2543,901,2625,2616,2619,2626,2621
1417,2009,2037,2521,2543,2326,2622,2627,2628,2624,2621
1418,578,2451,541,2470,2588,2603,877,2589,2583,2629
1419,1495,2451,1564,2470,2605,2584,1857,2630,2583,2582
1420,1045,1044,973,2456,1306,1303,1304,2631,2632,2600
** ... 2320 like lines cut
*NSET,NSET=FIX
1,2,3,4,9,10,11,12,13,14,15,16,17,18,19,20,
21,22,23,24,25,26,27,28,29,30,31,32,33,34,35,36,
333,334,335,336,337,338,339,340,341,342,343,344,345,346,347,348,
349,350,351,352,353,354,355,356,357,358,359,360,361,362,363,364,
365,366,367,368,369,370,371,372,373,374,375,376,377,378,379,380,
381,382,383,384,385,386,387,388,389,390,391,392,393,394,395,396,
397,398,399,400,401,402,403,404,405
*NSET,NSET=LOAD
5,6,7,8,37,38,39,40,41,42,43,44,45,46,47,48,
49,50,51,52,53,54,55,56,57,58,59,60,61,62,63,64,
406,407,408,409,410,411,412,413,414,415,416,417,418,419,420,421,
422,423,424,425,426,427,428,429,430,431,432,433,434,435,436,437,
438,439,440,441,442,443,444,445,446,447,448,449,450,451,452,453,
454,455,456,457,458,459,460,461,462,463,464,465,466,467,468,469,
470,471,472,473,474,475,476,477,478
*NSET,NSET=BEAM
1,2,3,4,5,6,7,8,9,10,11,12,13,14,15,16,
17,18,19,20,21,22,23,24,25,26,27,28,29,30,31,32,
33,34,35,36,37,38,39,40,41,42,43,44,45,46,47,48,
49,50,51,52,53,54,55,56,57,58,59,60,61,62,63,64,
65,66,67,68,69,70,71,72,73,74,75,76,77,78,79,80,
81,82,83,84,85,86,87,88,89,90,91,92,93,94,95,96,
97,98,99,100,101,102,103,104,105,106,107,108,109,110,111,112,
113,114,115,116,117,118,119,120,121,122,123,124,125,126,127,128,
129,130,131,132,133,134,135,136,137,138,139,140,141,142,143,144,
145,146,147,148,149,150,151,152,153,154,155,156,157,158,159,160,
161,162,163,164,165,166,167,168,169,170,171,172,173,174,175,176,
177,178,179,180,181,182,183,184,185,186,187,188,189,190,191,192,
193,194,195,196,197,198,199,200,201,202,203,204,205,206,207,208,
209,210,211,212,213,214,215,216,217,218,219,220,221,222,223,224,
225,226,227,228,229,230,231,232,233,234,235,236,237,238,239,240,
241,242,243,244,245,246,247,248,249,250,251,252,253,254,255,256,
257,258,259,260,261,262,263,264,265,266,267,268,269,270,271,272,
273,274,275,276,277,278,279,280,281,282,283,284,285,286,287,288,
289,290,291,292,293,294,295,296,297,298,299,300,301,302,303,304,
305,306,307,308,309,310,311,312,313,314,315,316,317,318,319,320,
** ... 256 like lines cut
*ELSET,ELSET=BEAM
1401,1402,1403,1404,1405,1406,1407,1408,1409,1410,1411,1412,1413,1414,1415,1416,
1417,1418,1419,1420,1421,1422,1423,1424,1425,1426,1427,1428,1429,1430,1431,1432,
1433,1434,1435,1436,1437,1438,1439,1440,1441,1442,1443,1444,1445,1446,1447,1448,
1449,1450,1451,1452,1453,1454,1455,1456,1457,1458,1459,1460,1461,1462,1463,1464,
1465,1466,1467,1468,1469,1470,1471,1472,1473,1474,1475,1476,1477,1478,1479,1480,
1481,1482,1483,1484,1485,1486,1487,1488,1489,1490,1491,1492,1493,1494,1495,1496,
1497,1498,1499,1500,1501,1502,1503,1504,1505,1506,1507,1508,1509,1510,1511,1512,
1513,1514,1515,1516,1517,1518,1519,1520,1521,1522,1523,1524,1525,1526,1527,1528,
1529,1530,1531,1532,1533,1534,1535,1536,1537,1538,1539,1540,1541,1542,1543,1544,
1545,1546,1547,1548,1549,1550,1551,1552,1553,1554,1555,1556,1557,1558,1559,1560,
1561,1562,1563,1564,1565,1566,1567,1568,1569,1570,1571,1572,1573,1574,1575,1576,
1577,1578,1579,1580,1581,1582,1583,1584,1585,1586,1587,1588,1589,1590,1591,1592,
1593,1594,1595,1596,1597,1598,1599,1600,1601,1602,1603,1604,1605,1606,1607,1608,
1609,1610,1611,1612,1613,1614,1615,1616,1617,1618,1619,1620,1621,1622,1623,1624,
1625,1626,1627,1628,1629,1630,1631,1632,1633,1634,1635,1636,1637,1638,1639,1640,
1641,1642,1643,1644,1645,1646,1647,1648,1649,1650,1651,1652,1653,1654,1655,1656,
1657,1658,1659,1660,1661,1662,1663,1664,1665,1666,1667,1668,1669,1670,1671,1672,
1673,1674,1675,1676,1677,1678,1679,1680,1681,1682,1683,1684,1685,1686,1687,1688,
1689,1690,1691,1692,1693,1694,1695,1696,1697,1698,1699,1700,1701,1702,1703,1704,
1705,1706,1707,1708,1709,1710,1711,1712,1713,1714,1715,1716,1717,1718,1719,1720,
** ... 127 like lines cut
*ELSET,ELSET=GAP
3741
*SURFACE,NAME=LOAD_SURF,TYPE=ELEMENT
3403,S1
2939,S2
3659,S1
3499,S3
3641,S2
2267,S1
3613,S2
3660,S1
2046,S1
3363,S1
3668,S3
2917,S2
2793,S2
3657,S1
3476,S4
3600,S1
3677,S3
2170,S1
3470,S4
3446,S1
** ... 24 like lines cut

*SURFACE,NAME=NODE_SURF,TYPE=NODE
1,
FAKE_SET,
10,
30

*SURFACE,NAME=ELEM_SURF
3403,S1
2939,S2
3659,S1
3499,S3
3641,S2
2267,S1
3613,S2
3660,S1
2046,S1

***************************************
** MODEL KEYWORDSS
***************************************

*COUPLING,CONSTRAINT NAME=COUP_LOAD,REF NODE=4404,SURFACE=LOAD_SURF
*KINEMATIC
1,3

*GAP,ELSET=GAP
1.0000000e+00,0.0000000e+00,-1.0000000e+00,0.0000000e+00

*BOUNDARY
FIX,1,3
4405,1,3

*MATERIAL,NAME=STEEL

*ELASTIC,TYPE=ISO
2.1000000e+05,3.0000000e-01,2.9400000e+02

*SOLID SECTION,MATERIAL=STEEL,ELSET=BEAM


***************************************
** STEPS
***************************************

*STEP,NLGEOM

*STATIC
1.0000000e+00,1.0000000e+00

*CLOAD
4404,2,-2.0000000e+04

*NODE FILE
U

*EL FILE
S

*END STEP
